Xref: msuinfo sci.crypt:11846 comp.org.eff.talk:12022 alt.privacy:5239
Path: msuinfo!uchinews!linac!pacific.mps.ohio-state.edu!zaphod.mps.ohio-state.edu!sol.ctr.columbia.edu!howland.reston.ans.net!hsdndev!dartvax!fluent!fluent!bd
From: bd@fluent@dartmouth.EDU (Brice Dowaliby)
Newsgroups: sci.crypt,comp.org.eff.talk,alt.privacy
Subject: Re: drug dealers on the high seas (was Risks of Using PGP 2.0)
Message-ID: <BD.92Dec14070358@fluent.UUCP>
Date: 14 Dec 92 12:03:58 GMT
References: <10DEC199213473080@pavo.concordia.ca> <1992Dec13.203420.18016@pegasus.com>
Sender: bd@fluent@dartmouth.EDU (Brice Dowaliby)
Reply-To: bd%fluent@dartmouth.EDU
Distribution: usa
Organization: Fluent Inc., Lebanon NH
Lines: 19
In-Reply-To: tleylan@pegasus.com's message of 13 Dec 92 20:34:20 GMT

tleylan@pegasus.com (Tom Leylan) writes:

>se_schn@pavo.concordia.ca (Ranfry) writes:
>>
>> 	Name one country where cocaine is legal.
>
>Well the U.S. comes to mind.  You need a license but there are people with
>them mostly researchers.  Just because you need a license doesn't define
>something as illegal.

Ear, Nose and Throat M.D.s use it too, as a local
anesthetic for nasal surgery.  They buy it from medical 
suppliers in small quantities (half-gram?) and have to keep
records for every milligram they dispense.
-- 
   Brice Dowaliby, Fluent Inc., 10 Cavendish Court, Lebanon, NH  03766
                         bd%fluent@dartmouth.edu        
             I don't speak for them, they don't speak for me
                              DoD # 0698
