Xref: msuinfo alt.security:8681 sci.crypt:11906 talk.politics.guns:47312 talk.politics.misc:159355 alt.security.pgp:580
Path: msuinfo!caen!zaphod.mps.ohio-state.edu!cs.utexas.edu!newsfeed.rice.edu!hsdndev!dartvax!fluent!fluent!bd
From: bd@fluent@dartmouth.EDU (Brice Dowaliby)
Newsgroups: alt.security,sci.crypt,talk.politics.guns,talk.politics.misc,alt.security.pgp
Subject: Re: PGP as a World Standard
Message-ID: <BD.92Dec18084224@fluent.UUCP>
Date: 18 Dec 92 13:42:24 GMT
References: <kZJVVB8w165w@mantis.co.uk> <1992Dec16.171637.11957@netcom.com> <1992Dec17.161719.18422@shearson.com> <1992Dec17.215323.1154@netcom.com>
Sender: bd@fluent@dartmouth.EDU (Brice Dowaliby)
Reply-To: bd%fluent@dartmouth.EDU
Organization: Fluent Inc., Lebanon NH
Lines: 12
In-Reply-To: strnlght@netcom.com's message of 17 Dec 92 21:53:23 GMT


All this PGP stuff on talk.politics.guns is getting to be a pain.
Could you folks please edit your "newsgroups" lines and
take talk.politics.guns out of it?

Thanks,
BD
-- 
   Brice Dowaliby, Fluent Inc., 10 Cavendish Court, Lebanon, NH  03766
                         bd%fluent@dartmouth.edu        
             I don't speak for them, they don't speak for me
                              DoD # 0698
